*
* Deltares, Delft3D-QUICKIN Version 4.17.05.7767, Jul 10 2009, 10:12:14
* File creation date: 2010-12-09, 18:01:12
*
L001
      20   2
   9.7577531E+04   4.9810537E+05
   9.7741907E+04   4.9818573E+05
   9.7914332E+04   4.9825327E+05
   9.8478655E+04   4.9807610E+05
   9.8357260E+04   4.9804657E+05
   9.8347417E+04   4.9799736E+05
   9.8403193E+04   4.9797767E+05
   9.8642703E+04   4.9808266E+05
   9.9282488E+04   4.9805314E+05
   9.9686045E+04   4.9818765E+05
   9.9669641E+04   4.9823359E+05
   9.9292331E+04   4.9814828E+05
   9.9042979E+04   4.9814828E+05
   9.8655827E+04   4.9817453E+05
   9.7976670E+04   4.9832217E+05
   9.7842151E+04   4.9833202E+05
   9.7691227E+04   4.9826640E+05
   9.7582956E+04   4.9819094E+05
   9.7573113E+04   4.9813188E+05
   9.7577531E+04   4.9810537E+05
