*
* Deltares, Delft3D-QUICKIN Version 4.17.05.7767, Jul 10 2009, 10:12:14
* File creation date: 2010-12-09, 18:08:35
*
L001
      21   2
   9.6868889E+04   4.9770356E+05
   9.6843320E+04   4.9761224E+05
   9.6920029E+04   4.9740403E+05
   9.6993084E+04   4.9728714E+05
   9.7033265E+04   4.9722870E+05
   9.7095363E+04   4.9712642E+05
   9.7427767E+04   4.9702049E+05
   9.7884803E+04   4.9717384E+05
   9.8107186E+04   4.9725792E+05
   9.8399409E+04   4.9733098E+05
   9.8494382E+04   4.9730541E+05
   9.9257816E+04   4.9699857E+05
   9.9422191E+04   4.9722139E+05
   9.9356441E+04   4.9726157E+05
   9.9232246E+04   4.9707163E+05
   9.8450549E+04   4.9746248E+05
   9.7416808E+04   4.9714834E+05
   9.7153807E+04   4.9718852E+05
   9.6956556E+04   4.9753188E+05
   9.6887153E+04   4.9769991E+05
   9.6868889E+04   4.9770356E+05
